<?xml version="1.0" encoding="UTF-8"?>
<routes xmlns:xsi="http://www.w3.org/2001/XMLSchema-instance"
        xsi:noNamespaceSchemaLocation="http://sumo.dlr.de/xsd/routes_file.xsd">
    <!-- Emergency vehicle types -->
    <vType id="police" accel="3.0" decel="6.0" sigma="0.5"
           length="5.0" maxSpeed="23.0" color="0,0,1" guiShape="police"/>
    <vType id="ambulance" accel="3.0" decel="6.0" sigma="0.5"
           length="5.0" maxSpeed="25.0" color="1,0,0" guiShape="emergency"/>
    <!--POLICE VEHICLE -->
    <vehicle id="12" type="police" depart="6.00">
        <route edges="9122521#1 546624450#2 546624450#3 546624448#10 546624448#11 546624448#12 546624448#14 546624448#15 415358489#0 1090690718 1090690719#0 1090690719#1 1090690719#3 1090690719#4 1090690719#5 1090690719#6 -1315066558 -1315066560 -1315066559 -1315066562 -1315066561 -273902602#1 -273902602#0 -415362031#4 -415362031#3 -415362031#2 -415362031#1 -415362031#0 -1315071877#1 -1315070421#1 -1315070421#0 -631611869#1 -631611869#0 -276157215#9 -276157215#8 -276157215#7 -276157215#6 -276157215#5 -276157215#4 -276157215#3 -276157215#2 -276157215#1 -276157215#0 276157217#0 -1315084524 -276157224#1 -276157224#0 -1315094301 276157218 129601761 436738594#0 436738594#1 586002130#2 586002130#3 586413256 180244645 586413267#1 586413266#1 586413266#2 586413266#3 586413259#0 586413259#1 586413259#2 586413259#3 565255792#0 565255792#1 565255792#2 565255792#3 565255792#4 565255792#5"/>
    </vehicle>
    <!-- AMBULANCE VEHICLE -->
    <vehicle id="13" type="ambulance" depart="7.00">
        <route edges="-9127894 -9128976#0 546624448#3 546624448#4 546624448#5 546624448#6 546624448#7 546624448#8 546624448#9 546624448#10 -333377404#6 -333377404#5 -333377404#4 -333377404#3 -333377404#1 1373611041 1373611042 1416955280 1373611038 1446648799"/>
    </vehicle>
</routes>