<?xml version="1.0" encoding="UTF-8"?>
<sumoConfiguration>
    <input>
        <net-file value="ksuroad.net.xml"/>
        <route-files value="routes.rou.xml, emergency.rou.xml"/>
    </input>
</sumoConfiguration>