<?xml version="1.0" encoding="UTF-8"?>
<routes xmlns:xsi="http://www.w3.org/2001/XMLSchema-instance"
        xsi:noNamespaceSchemaLocation="http://sumo.dlr.de/xsd/routes_file.xsd">

    <!-- Normal car type (used by all normal vehicles) -->
    <vType id="car" accel="2.6" decel="4.5" sigma="0.5"
           length="5.0" maxSpeed="16.67" guiShape="passenger"/>
    <!-- Normal vehicles (id="0" through id="11") -->
    <vehicle id="0" type="car" depart="0">
        <route edges="546624448#11 546624448#12 546624448#14 546624448#15 415358489#0 1090690718 1090690719#0 1090690719#1 1090690719#3 1090690719#4 1090690719#5 1090690719#6 -1315066558 -1315066560 -1315066559 -1315066562 -1315066561 -273902602#1 -273902602#0 -415362031#4 -415362031#3 -415362031#2 -415362031#1 -415362031#0 -1315071877#1 -1315070421#1 -1315070421#0 -631611869#1 -631611869#0 -276157215#9 -276157215#8 -276157215#7 -276157215#6 -276157215#5 -276157215#4 -276157215#3 -276157215#2 -276157215#1 -276157215#0 276157217#0 -1315084524 -276157224#1 -276157224#0 -1315094301 276157218 129601761 551574173#0 551574173#1 533665191#0 533665191#1 277745444 283536957#1 -9153734#4 -9153734#3 -9153734#2 -9153734#1 287145664#1 287145664#2 287145664#4 1333430095#0 1333430095#1 1333430095#2 1333430094#1 1333430094#2 1333430094#3 -1333430094#3 -1333430094#2 -1333430094#1 -1333430095#2"/>
        <stop lane="-1333430095#2_0" duration="86400" parking="true"/>
    </vehicle>
    <vehicle id="1" type="car" depart="2.50">
        <route edges="-9140718#1 -9140718#0 546624448#5 546624448#6 546624448#7 546624448#8 546624448#9 546624448#10 546624448#11 546624448#12 546624448#14 546624448#15 415358489#0 1090690718 1090690719#0 1090690719#1 1090690719#3 1090690719#4 1090690719#5 1090690719#6 -1315066558 -1315066560 -1315066559 -1315066562 -1315066561 -273902602#1 -273902602#0 -415362031#4 -415362031#3 -415362031#2 -415362031#1 -415362031#0 -1315071877#1 -1315070421#1 -1315070421#0 -631611869#1 -631611869#0 -276157215#9 -276157215#8 -276157215#7 -276157215#6 -276157215#5 -276157215#4 -276157215#3 -276157215#2 -276157215#1 -276157215#0 276157217#0 -1315084524 -276157224#1 -276157224#0 -1315094301 276157218 129601761 551574173#0 551574173#1 533665191#0 533665191#1 277745444 533664762 551574168#2 287145656#0 287145656#1 287145656#3 287145656#4 551576182 656443275 656443273 656443274#0 656443274#1 656443274#2 656443274#3 656443274#4 656443274#5 656443274#6 586077896#0 586077896#1 586077896#2 -586077896#2 -586077896#1 -586077896#0 -656443274#6 -656443274#5 -656443274#4 -656443274#3 -656443274#2 -656443274#1 -656443274#0 -656443273"/>
        <stop lane="-656443273_0" duration="86400" parking="true"/>
    </vehicle>
    <vehicle id="2" type="car" depart="5.00">
        <route edges="586413246#4 586413246#5 586413246#6 586413246#7 586413246#8 -586413246#8 -586413246#7 -586413246#6 -586413246#5 -586413246#4 -586413246#3 -586413246#2 -586413246#1 -586413246#0 -180244637#1 -180244637#0 -9129472#1 -276157217#0 276157215#0 276157215#1 276157215#2 276157215#3 276157215#4 276157215#5 276157215#6 276157215#7 276157215#8 276157215#9 631611869#0 631611869#1 1315070421#0 1315070421#1 1315071877#1 415362031#0 415362031#1 415362031#2 415362031#3 415362031#4 273902602#0 273902602#1 1315066561 1315066562 1315066559 1315066560 1315066558 415358466#1 415358466#2 415358466#3 415358466#4 341646974 1090690724 -415358489#0 -546624448#15 -546624448#14 -546624448#12 -546624448#11 -546624448#10 -546624448#9 -546624448#8 -546624448#7 -546624448#6 -546624448#5 546624448#5 546624448#6 546624448#7 546624448#8"/>
        <stop lane="546624448#8_0" duration="86400" parking="true"/>
    </vehicle>
    <vehicle id="3" type="car" depart="8.50">
        <route edges="9146781 9150041#0 9150041#1 9150041#2 -1446648799 -1373611038 -1416955280 -1373611042 -1373611041 -279251534"/>
        <stop lane="-279251534_0" duration="86400" parking="true"/>
    </vehicle>
    <vehicle id="4" type="car" depart="10.00">
        <route edges="1315070421#1 1315071877#1 415362031#0 415362031#1 415362031#2 415362031#3 415362031#4 273902602#0 273902602#1 1315066561 1315066562 1315066559 1315066560 1315066558 415358466#1 415358466#2 415358466#3 415358466#4 341646974 1090690724 1090690723#0 1090690723#1 338505588#0 338505588#1 338505588#2 1414014799 279251534 -1373611040#0"/>
        <stop lane="-1373611040#0_0" duration="86400" parking="true"/>
    </vehicle>
    <vehicle id="5" type="car" depart="12.50">
        <route edges="-9127894 -9128976#0 546624448#3 546624448#4 546624448#5 546624448#6 546624448#7 546624448#8 546624448#9 546624448#10 -333377404#6 -333377404#5 -333377404#4 -333377404#3 -333377404#1 1373611041 1373611042 1416955280 1373611038 1446648799"/>
        <stop lane="1446648799_0" duration="86400" parking="true"/>
    </vehicle>
    <vehicle id="6" type="car" depart="15.00">
        <route edges="-1315071877#1 -341624737#0 -341623766#5 -341623766#4 -341623766#3 -341623766#2 -341623766#1 -341623765#1 -9128976#2 -9128976#1 -9128976#0 546624448#3 9150751#0 -563606077"/>
        <stop lane="-563606077_0" duration="86400" parking="true"/>
    </vehicle>
    <vehicle id="7" type="car" depart="17.50">
        <route edges="546624448#7 546624448#8 546624448#9 546624448#10 546624448#11 546624448#12 546624448#14 546624448#15 415358489#0 1090690718 1090690719#0 1090690719#1 1090690719#3 1090690719#4 1090690719#5 1090690719#6 -1315066558 -1315066560 -1315066559 -1315066562 -1315066561 -273902602#1 -273902602#0 -415362031#4 -415362031#3 -415362031#2 -415362031#1 -415362031#0 -1315071877#1 -1315070421#1 -1315070421#0 -631611869#1 -631611869#0 -276157215#9 -276157215#8 -276157215#7 -276157215#6 -276157215#5 -276157215#4 -276157215#3 -276157215#2 -276157215#1 -276157215#0 276157217#0 -1315084524 -276157224#1 -276157224#0 -1315094301 276157218 129601761 551574173#0 551574173#1 533665191#0 533665191#1 277745444 533664762 551574168#2 169152446#0 169152446#1 273902603"/>
        <stop lane="273902603_0" duration="86400" parking="true"/>
    </vehicle>
    <vehicle id="8" type="car" depart="20.00">
        <route edges="-9127894 9128976#1 9128976#2 341623765#1 341623766#1 341623766#2 341623766#3 341623766#4 341623766#5 341624737#0 -1315070421#1 -1315070421#0 -631611869#1 -631611869#0 -276157215#9 -276157215#8 -276157215#7 -276157215#6 -276157215#5 -276157215#4 -276157215#3 -276157215#2 -276157215#1 -276157215#0 276157217#0 -1315084524 -276157224#1 -276157224#0 -1315094301 276157218 129601761 551574173#0 551574173#1 533665191#0 533665191#1 277745444 31031717#1 283536956#0 283536956#1 283536956#2 283536956#3"/>
        <stop lane="283536956#3_0" duration="86400" parking="true"/>
    </vehicle>
    <vehicle id="9" type="car" depart="22.50">
        <route edges="9122521#1 546624450#2 546624450#3 546624448#10 546624448#11 546624448#12 546624448#14 546624448#15 415358489#0 1090690718 1090690719#0 1090690719#1 1090690719#3 1090690719#4 1090690719#5 1090690719#6 -1315066558 -1315066560 -1315066559 -1315066562 -1315066561 -273902602#1 -273902602#0 -415362031#4 -415362031#3 -415362031#2 -415362031#1 -415362031#0 -1315071877#1 -1315070421#1 -1315070421#0 -631611869#1 -631611869#0 -276157215#9 -276157215#8 -276157215#7 -276157215#6 -276157215#5 -276157215#4 -276157215#3 -276157215#2 -276157215#1 -276157215#0 276157217#0 -1315084524 -276157224#1 -276157224#0 -1315094301 276157218 129601761 436738594#0 436738594#1 586002130#2 586002130#3 586413256 180244645 586413267#1 586413266#1 586413266#2 586413266#3 586413259#0 586413259#1 586413259#2 586413259#3 565255792#0 565255792#1 565255792#2 565255792#3 565255792#4 565255792#5"/>
        <stop lane="565255792#5_0" duration="86400" parking="true"/>
    </vehicle>
    <vehicle id="10" type="car" depart="25.00">
        <route edges="-9149306#4 -9149306#3 -9149306#2 9135718#2 9135718#3 9149468#4 9149468#5 341623765#0 341623765#1 341623766#1 341623766#2 341623766#3 341623766#4 341623766#5 341624737#0 1315071877#1 415362031#0 415362031#1 415362031#2 415362031#3 415362031#4 273902602#0 273902602#1 1315066561 1315066562 1315066559 1315066560 1315066558 415358466#1 415358466#2 415358466#3 415358466#4 341646974 1090690724 -415358489#0 -546624448#15 -546624448#14"/>
        <stop lane="-546624448#14_0" duration="86400" parking="true"/>
    </vehicle>
    <vehicle id="11" type="car" depart="27.50">
        <route edges="9151319 277175527 1067034853 541844521#0 541844521#1 808636067#0 808636067#1 808636067#2 279251529#0 279251529#1 279251529#2 341647176 341646973 631653408#1 338505588#0 338505588#1 338505588#2 1414014799 279251534 333377404#1 333377404#3 333377404#4 333377404#5 333377404#6 -546624448#10 -546624450#3 -546624450#2 279274119 -9146781"/>
        <stop lane="-9146781_0" duration="86400" parking="true"/>
    </vehicle>
</routes>
